Version 4
SHEET 1 1652 792
WIRE 112 -144 48 -144
WIRE 1296 -144 448 -144
WIRE 48 -112 48 -144
WIRE 112 -112 112 -144
WIRE 1312 -96 1232 -96
WIRE 1456 -96 1392 -96
WIRE 1296 -64 1296 -144
WIRE 1136 -48 1072 -48
WIRE 1232 -48 1232 -96
WIRE 1232 -48 1216 -48
WIRE 1264 -48 1232 -48
WIRE 1072 -32 1072 -48
WIRE 1456 -32 1456 -96
WIRE 1456 -32 1328 -32
WIRE 48 -16 48 -32
WIRE 448 -16 448 -144
WIRE 448 -16 48 -16
WIRE 912 -16 448 -16
WIRE 1264 -16 1216 -16
WIRE 928 16 848 16
WIRE 1072 16 1008 16
WIRE 144 48 -64 48
WIRE 912 48 912 -16
WIRE 752 64 688 64
WIRE 848 64 848 16
WIRE 848 64 832 64
WIRE 880 64 848 64
WIRE 480 80 384 80
WIRE 624 80 560 80
WIRE 688 80 688 64
WIRE 1072 80 1072 16
WIRE 1072 80 944 80
WIRE 1104 80 1072 80
WIRE 1216 80 1216 -16
WIRE 1216 80 1184 80
WIRE 880 96 832 96
WIRE 1216 96 1216 80
WIRE 1312 96 1216 96
WIRE 1456 96 1456 -32
WIRE 1456 96 1392 96
WIRE 48 112 48 -16
WIRE -64 128 -64 48
WIRE 16 128 -64 128
WIRE 448 128 448 -16
WIRE 144 144 144 48
WIRE 144 144 80 144
WIRE 256 144 144 144
WIRE 384 144 384 80
WIRE 384 144 336 144
WIRE 416 144 384 144
WIRE 1216 144 1216 96
WIRE 16 160 -32 160
WIRE 624 160 624 80
WIRE 624 160 480 160
WIRE 688 160 624 160
WIRE 832 160 832 96
WIRE 832 160 768 160
WIRE 416 176 400 176
WIRE -32 192 -32 160
WIRE 400 208 400 176
WIRE 832 208 832 160
WIRE 928 208 832 208
WIRE 1072 208 1072 80
WIRE 1072 208 1008 208
WIRE 832 256 832 208
WIRE 48 352 48 176
WIRE 448 352 448 192
WIRE 448 352 48 352
WIRE 832 352 832 320
WIRE 832 352 448 352
WIRE 912 352 912 112
WIRE 912 352 832 352
WIRE 1216 352 1216 208
WIRE 1216 352 912 352
WIRE 1296 352 1296 0
WIRE 1296 352 1216 352
WIRE 48 368 48 352
FLAG -32 272 0
FLAG 112 -112 0
FLAG 48 448 0
FLAG 400 208 0
FLAG 688 80 0
FLAG 1072 -32 0
SYMBOL voltage -32 176 R0
WINDOW 123 0 0 Left 0
WINDOW 39 0 0 Left 0
SYMATTR InstName g
SYMATTR Value 9.8
SYMBOL voltage 48 -16 R180
WINDOW 0 24 96 Left 2
WINDOW 3 24 16 Left 2
WINDOW 123 0 0 Left 0
WINDOW 39 0 0 Left 0
SYMATTR InstName V1
SYMATTR Value 15
SYMBOL voltage 48 352 R0
WINDOW 123 0 0 Left 0
WINDOW 39 0 0 Left 0
SYMATTR InstName V2
SYMATTR Value -15
SYMBOL res 352 128 R90
WINDOW 0 0 56 VBottom 2
WINDOW 3 32 56 VTop 2
SYMATTR InstName R1
SYMATTR Value 5k
SYMBOL res 576 64 R90
WINDOW 0 0 56 VBottom 2
WINDOW 3 32 56 VTop 2
SYMATTR InstName R2
SYMATTR Value 5k
SYMBOL res 784 144 R90
WINDOW 0 0 56 VBottom 2
WINDOW 3 32 56 VTop 2
SYMATTR InstName R5
SYMATTR Value 20k
SYMBOL res 848 48 R90
WINDOW 0 0 56 VBottom 2
WINDOW 3 32 56 VTop 2
SYMATTR InstName R6
SYMATTR Value 10k
SYMBOL res 1024 0 R90
WINDOW 0 0 56 VBottom 2
WINDOW 3 32 56 VTop 2
SYMATTR InstName R7
SYMATTR Value 10k
SYMBOL res 1024 192 R90
WINDOW 0 0 56 VBottom 2
WINDOW 3 32 56 VTop 2
SYMATTR InstName R8
SYMATTR Value 20k
SYMBOL cap 816 256 R0
WINDOW 39 24 84 Left 2
SYMATTR SpiceLine ic = 19.9
SYMATTR InstName C1
SYMATTR Value 100µ
SYMBOL res 1232 -64 R90
WINDOW 0 0 56 VBottom 2
WINDOW 3 32 56 VTop 2
SYMATTR InstName R10
SYMATTR Value 10k
SYMBOL res 1408 -112 R90
WINDOW 0 0 56 VBottom 2
WINDOW 3 32 56 VTop 2
SYMATTR InstName R11
SYMATTR Value 10k
SYMBOL res 1408 80 R90
WINDOW 0 0 56 VBottom 2
WINDOW 3 32 56 VTop 2
SYMATTR InstName R12
SYMATTR Value 20k
SYMBOL cap 1200 144 R0
WINDOW 39 24 84 Left 2
SYMATTR SpiceLine ic = 17
SYMATTR InstName C2
SYMATTR Value 100µ
SYMBOL res 1200 64 R90
WINDOW 0 0 56 VBottom 2
WINDOW 3 32 56 VTop 2
SYMATTR InstName R9
SYMATTR Value 20k
SYMBOL AutoGenerated\\TL084 48 144 R0
SYMATTR InstName U5
SYMBOL AutoGenerated\\TL084 448 160 R0
SYMATTR InstName U6
SYMBOL AutoGenerated\\TL084 912 80 R0
SYMATTR InstName U7
SYMBOL AutoGenerated\\TL084 1296 -32 R0
SYMATTR InstName U8
TEXT -64 664 Left 2 !.tran 10
